** Profile: "SCHEMATIC1-transient_test"  [ C:\Users\alkinanl\Desktop\Analog-Comparator-IC-Design\SPICE\Comparator_Design\OrCAD X Capture\OrCAD_Comparator-PSpiceFiles\SCHEMATIC1\transient_test.sim ] 

** Creating circuit file "transient_test.cir" 
** WARNING: THIS AUTOMATICALLY GENERATED FILE MAY BE OVERWRITTEN BY SUBSEQUENT SIMULATIONS

*Libraries: 
* Profile Libraries :
* Local Libraries :
.LIB "../../../orcad_comparator-pspicefiles/orcad_comparator.lib" 
* From [PSPICE NETLIST] section of C:\Users\alkinanl\cdssetup\OrCAD_PSpice\24.1.0\PSpice.ini file:
.lib "nom.lib" 

*Analysis directives: 
.TRAN  0 0.1 0 
.OPTIONS ADVCONV
.AUTOCONVERGE ITL1=1000 ITL2=1000 ITL4=1000 RELTOL=0.05 ABSTOL=1.0E-6 VNTOL=.001 PIVTOL=1.0E-10 
.PROBE64 V(alias(*)) I(alias(*)) W(alias(*)) D(alias(*)) NOISE(alias(*)) 
.INC "..\SCHEMATIC1.net" 


.END
