Version 4.1
SHEET 1 1580 680
WIRE 544 -432 368 -432
WIRE 576 -432 544 -432
WIRE 784 -432 576 -432
WIRE 864 -432 784 -432
WIRE 896 -432 864 -432
WIRE 1120 -432 896 -432
WIRE 1152 -432 1120 -432
WIRE 1424 -432 1152 -432
WIRE 1472 -432 1424 -432
WIRE 576 -304 576 -432
WIRE 864 -304 864 -432
WIRE 368 -272 368 -432
WIRE 544 -256 544 -432
WIRE 576 -256 544 -256
WIRE 896 -256 896 -432
WIRE 896 -256 864 -256
WIRE 1424 -256 1424 -432
WIRE 1120 -240 1120 -432
WIRE 656 -224 624 -224
WIRE 816 -224 656 -224
WIRE 1472 -208 1472 -432
WIRE 1472 -208 1424 -208
WIRE 1152 -192 1152 -432
WIRE 1152 -192 1120 -192
WIRE 576 -176 576 -208
WIRE 656 -176 656 -224
WIRE 656 -176 576 -176
WIRE 1376 -176 1264 -176
WIRE 864 -160 864 -208
WIRE 1072 -160 864 -160
WIRE 576 -128 576 -176
WIRE 864 -128 864 -160
WIRE 48 -80 48 -144
WIRE 656 -80 576 -80
WIRE 864 -80 784 -80
WIRE 528 -48 464 -48
WIRE 960 -48 912 -48
WIRE 1424 -32 1424 -160
WIRE 1504 -32 1424 -32
WIRE 1120 -16 1120 -144
WIRE 1264 -16 1264 -176
WIRE 1264 -16 1120 -16
WIRE 656 16 656 -80
WIRE 784 16 784 -80
WIRE 48 32 48 0
WIRE 1424 48 1424 -32
WIRE 576 96 576 -32
WIRE 704 96 576 96
WIRE 864 96 864 -32
WIRE 864 96 704 96
WIRE 1472 96 1424 96
WIRE 1120 128 1120 -16
WIRE 1264 128 1264 -16
WIRE 1376 128 1264 128
WIRE 1152 176 1120 176
WIRE 1072 208 576 208
WIRE 368 240 368 -192
WIRE 480 240 368 240
WIRE 368 272 368 240
WIRE 704 272 704 96
WIRE 368 320 320 320
WIRE 736 320 704 320
WIRE 480 352 480 240
WIRE 480 352 416 352
WIRE 576 352 576 208
WIRE 576 352 480 352
WIRE 656 352 576 352
WIRE 320 448 320 320
WIRE 320 448 304 448
WIRE 368 448 368 368
WIRE 368 448 320 448
WIRE 704 448 704 368
WIRE 704 448 368 448
WIRE 736 448 736 320
WIRE 736 448 704 448
WIRE 880 448 736 448
WIRE 1120 448 1120 224
WIRE 1120 448 880 448
WIRE 1152 448 1152 176
WIRE 1152 448 1120 448
WIRE 1424 448 1424 144
WIRE 1424 448 1152 448
WIRE 1472 448 1472 96
WIRE 1472 448 1424 448
WIRE 880 512 880 448
FLAG 48 -144 VDD
FLAG 48 32 0
FLAG 784 -432 VDD
FLAG 880 512 0
FLAG 464 -48 Vin_1
FLAG 960 -48 Vin_2
FLAG 656 16 0
FLAG 784 16 0
FLAG 1504 -32 Vout
SYMBOL voltage 48 -96 R0
WINDOW 123 0 0 Left 0
WINDOW 39 0 0 Left 0
SYMATTR InstName VDD
SYMATTR Value 3
SYMBOL current 368 -272 R0
WINDOW 123 0 0 Left 0
WINDOW 39 0 0 Left 0
SYMATTR InstName I_ref
SYMATTR Value 1µ
SYMBOL nmos4 416 272 M0
SYMATTR InstName M1
SYMATTR Value NMOS_LVL1
SYMBOL nmos4 912 -128 M0
SYMATTR InstName M2
SYMATTR Value NMOS_LVL1
SYMBOL nmos4 528 -128 R0
SYMATTR InstName M3
SYMATTR Value NMOS_LVL1
SYMBOL nmos4 656 272 R0
SYMATTR InstName M4
SYMATTR Value NMOS_LVL1
SYMBOL pmos4 816 -304 R0
SYMATTR InstName M6
SYMATTR Value PMOS_LVL1
SYMBOL nmos4 1072 128 R0
SYMATTR InstName M8
SYMATTR Value NMOS_LVL1
SYMBOL nmos4 1376 48 R0
SYMATTR InstName M9
SYMATTR Value NMOS_LVL1
SYMBOL pmos4 1376 -256 R0
SYMATTR InstName M5
SYMATTR Value PMOS_LVL1
SYMBOL pmos4 1072 -240 R0
SYMATTR InstName M7
SYMATTR Value PMOS_LVL1
SYMBOL pmos4 624 -304 M0
SYMATTR InstName M10
SYMATTR Value PMOS_LVL1
TEXT 40 -528 Left 2 !.lib cmos_models.lib
TEXT 1072 496 Left 2 ;CS amplifier
TEXT 1320 496 Left 2 ;Inverting buffer
TEXT 408 488 Left 2 ;current mirror
